*Heading
** Job name: elastic_console_beam Model name: Model-1
** Generated by: Abaqus/CAE 2023
*Preprint, echo=NO, model=NO, history=NO, contact=NO
**
** PARTS
**
*Part, name=Part-1
*Node
      1,       -0.625, 0.0250000004, 0.0500000007
      2,       -0.625, 0.0583333336, 0.0500000007
      3,       -0.625, 0.0916666687, 0.0500000007
      4,       -0.625,        0.125, 0.0500000007
      5,       -0.625, 0.0250000004, 0.0250000004
      6,       -0.625, 0.0583333336, 0.0250000004
      7,       -0.625, 0.0916666687, 0.0250000004
      8,       -0.625,        0.125, 0.0250000004
      9,       -0.625, 0.0250000004,           0.
     10,       -0.625, 0.0583333336,           0.
     11,       -0.625, 0.0916666687,           0.
     12,       -0.625,        0.125,           0.
     13, -0.595000029, 0.0250000004, 0.0500000007
     14, -0.595000029, 0.0583333336, 0.0500000007
     15, -0.595000029, 0.0916666687, 0.0500000007
     16, -0.595000029,        0.125, 0.0500000007
     17, -0.595000029, 0.0250000004, 0.0250000004
     18, -0.595000029, 0.0583333336, 0.0250000004
     19, -0.595000029, 0.0916666687, 0.0250000004
     20, -0.595000029,        0.125, 0.0250000004
** ... 472 like lines cut
*Element, type=C3D8R
  1,  13,  14,  18,  17,   1,   2,   6,   5
  2,  14,  15,  19,  18,   2,   3,   7,   6
  3,  15,  16,  20,  19,   3,   4,   8,   7
  4,  17,  18,  22,  21,   5,   6,  10,   9
  5,  18,  19,  23,  22,   6,   7,  11,  10
  6,  19,  20,  24,  23,   7,   8,  12,  11
  7,  25,  26,  30,  29,  13,  14,  18,  17
  8,  26,  27,  31,  30,  14,  15,  19,  18
  9,  27,  28,  32,  31,  15,  16,  20,  19
 10,  29,  30,  34,  33,  17,  18,  22,  21
 11,  30,  31,  35,  34,  18,  19,  23,  22
 12,  31,  32,  36,  35,  19,  20,  24,  23
 13,  37,  38,  42,  41,  25,  26,  30,  29
 14,  38,  39,  43,  42,  26,  27,  31,  30
 15,  39,  40,  44,  43,  27,  28,  32,  31
 16,  41,  42,  46,  45,  29,  30,  34,  33
 17,  42,  43,  47,  46,  30,  31,  35,  34
 18,  43,  44,  48,  47,  31,  32,  36,  35
 19,  49,  50,  54,  53,  37,  38,  42,  41
 20,  50,  51,  55,  54,  38,  39,  43,  42
** ... 220 like lines cut
*Nset, nset=Set-1, generate
   1,  492,    1
*Elset, elset=Set-1, generate
   1,  240,    1
** Section: Steel-section
*Solid Section, elset=Set-1, material=Steel
,
*End Part
**  
**
** ASSEMBLY
**
*Assembly, name=Assembly
**  
*Instance, name=Part-1-1, part=Part-1
*End Instance
**  
*Nset, nset=Set-1, instance=Part-1-1, generate
  1,  12,   1
*Elset, elset=Set-1, instance=Part-1-1, generate
 1,  6,  1
*Nset, nset=Set-2, instance=Part-1-1, generate
 484,  492,    4
*Elset, elset=Set-2, instance=Part-1-1
 237, 240
*End Assembly
** 
** MATERIALS
** 
*Material, name=Steel
*Elastic
 2.1e+11, 0.3
** ----------------------------------------------------------------
** 
** STEP: Step-1
** 
*Step, name=Step-1, nlgeom=NO
*Static
1., 1., 1e-05, 1.
** 
** BOUNDARY CONDITIONS
** 
** Name: BC-1 Type: Displacement/Rotation
*Boundary
Set-1, 1, 1
Set-1, 2, 2
Set-1, 3, 3
Set-1, 4, 4
Set-1, 5, 5
Set-1, 6, 6
** Name: BC-2 Type: Displacement/Rotation
*Boundary
Set-2, 2, 2, -0.5
** 
** OUTPUT REQUESTS
** 
*Restart, write, frequency=0
** 
** FIELD OUTPUT: F-Output-1
** 
*Output, field, variable=PRESELECT
** 
** HISTORY OUTPUT: H-Output-1
** 
*Output, history, variable=PRESELECT
*End Step
