 Abaqus/Standard 2023                  DATE 11-Apr-2025 TIME 14:05:51
 SUMMARY OF JOB INFORMATION:
 STEP  INC ATT SEVERE EQUIL TOTAL  TOTAL      STEP       INC OF       DOF    IF
               DISCON ITERS ITERS  TIME/    TIME/LPF    TIME/LPF    MONITOR RIKS
               ITERS               FREQ
   1     1   1     0     4     4  0.00333    0.00333    0.003333  
   1     2   1     0     1     1  0.00667    0.00667    0.003333  
   1     3   1     0     1     1  0.0100     0.0100     0.003333  
   1     4   1     0     1     1  0.0133     0.0133     0.003333  
   1     5   1     0     1     1  0.0167     0.0167     0.003333  
   1     6   1     0     1     1  0.0200     0.0200     0.003333  
   1     7   1     0     1     1  0.0233     0.0233     0.003333  
   1     8   1     0     1     1  0.0267     0.0267     0.003333  
   1     9   1     0     1     1  0.0300     0.0300     0.003333  
   1    10   1     0     1     1  0.0333     0.0333     0.003333  
   1    11   1     0     1     1  0.0367     0.0367     0.003333  
   1    12   1     0     1     1  0.0400     0.0400     0.003333  
   1    13   1     0     1     1  0.0433     0.0433     0.003333  
   1    14   1     0     1     1  0.0467     0.0467     0.003333  
   1    15   1     0     1     1  0.0500     0.0500     0.003333  
   1    16   1     0     1     1  0.0533     0.0533     0.003333  
   1    17   1     0     1     1  0.0567     0.0567     0.003333  
   1    18   1     0     2     2  0.0600     0.0600     0.003333  
   1    19   1     0     1     1  0.0633     0.0633     0.003333  
   1    20   1     0     1     1  0.0667     0.0667     0.003333  
   1    21   1     0     1     1  0.0700     0.0700     0.003333  
   1    22   1     0     2     2  0.0733     0.0733     0.003333  
   1    23   1     0     1     1  0.0767     0.0767     0.003333  
   1    24   1     0     1     1  0.0800     0.0800     0.003333  
   1    25   1     0     2     2  0.0833     0.0833     0.003333  
   1    26   1     0     2     2  0.0867     0.0867     0.003333  
   1    27   1     0     1     1  0.0900     0.0900     0.003333  
   1    28   1     0     1     1  0.0933     0.0933     0.003333  
   1    29   1     0     2     2  0.0967     0.0967     0.003333  
   1    30   1     0     1     1  0.100      0.100      0.003333  
   1    31   1     0     1     1  0.103      0.103      0.003333  
   1    32   1     0     1     1  0.107      0.107      0.003333  
   1    33   1     0     1     1  0.110      0.110      0.003333  
   1    34   1     0     1     1  0.113      0.113      0.003333  
   1    35   1     0     2     2  0.117      0.117      0.003333  
   1    36   1     0     1     1  0.120      0.120      0.003333  
   1    37   1     0     1     1  0.123      0.123      0.003333  
   1    38   1     0     2     2  0.127      0.127      0.003333  
   1    39   1     0     2     2  0.130      0.130      0.003333  
   1    40   1     0     1     1  0.133      0.133      0.003333  
   1    41   1     0     2     2  0.137      0.137      0.003333  
   1    42   1     0     2     2  0.140      0.140      0.003333  
   1    43   1     0     2     2  0.143      0.143      0.003333  
   1    44   1     0     1     1  0.147      0.147      0.003333  
   1    45   1     0     1     1  0.150      0.150      0.003333  
   1    46   1     0     1     1  0.153      0.153      0.003333  
   1    47   1     0     1     1  0.157      0.157      0.003333  
   1    48   1     0     1     1  0.160      0.160      0.003333  
   1    49   1     0     1     1  0.163      0.163      0.003333  
   1    50   1     0     2     2  0.167      0.167      0.003333  
   1    51   1     0     2     2  0.170      0.170      0.003333  
   1    52   1     0     1     1  0.173      0.173      0.003333  
   1    53   1     0     1     1  0.177      0.177      0.003333  
   1    54   1     0     1     1  0.180      0.180      0.003333  
   1    55   1     0     1     1  0.183      0.183      0.003333  
   1    56   1     0     2     2  0.187      0.187      0.003333  
   1    57   1     0     1     1  0.190      0.190      0.003333  
   1    58   1     0     2     2  0.193      0.193      0.003333  
   1    59   1     0     1     1  0.197      0.197      0.003333  
   1    60   1     0     2     2  0.200      0.200      0.003333  
   1    61   1     0     1     1  0.203      0.203      0.003333  
   1    62   1     0     1     1  0.207      0.207      0.003333  
   1    63   1     0     1     1  0.210      0.210      0.003333  
   1    64   1     0     3     3  0.213      0.213      0.003333  
   1    65   1     0     2     2  0.217      0.217      0.003333  
   1    66   1     0     1     1  0.220      0.220      0.003333  
   1    67   1     0     1     1  0.223      0.223      0.003333  
   1    68   1     0     2     2  0.227      0.227      0.003333  
   1    69   1     0     1     1  0.230      0.230      0.003333  
   1    70   1     0     1     1  0.233      0.233      0.003333  
   1    71   1     0     1     1  0.237      0.237      0.003333  
   1    72   1     0     2     2  0.240      0.240      0.003333  
   1    73   1     0     1     1  0.243      0.243      0.003333  
   1    74   1     0     1     1  0.247      0.247      0.003333  
   1    75   1     0     1     1  0.250      0.250      0.003333  
   1    76   1     0     1     1  0.253      0.253      0.003333  
   1    77   1     0     2     2  0.257      0.257      0.003333  
   1    78   1     0     1     1  0.260      0.260      0.003333  
   1    79   1     0     1     1  0.263      0.263      0.003333  
   1    80   1     0     2     2  0.267      0.267      0.003333  
   1    81   1     0     1     1  0.270      0.270      0.003333  
   1    82   1     0     1     1  0.273      0.273      0.003333  
   1    83   1     0     2     2  0.277      0.277      0.003333  
   1    84   1     0     1     1  0.280      0.280      0.003333  
   1    85   1     0     1     1  0.283      0.283      0.003333  
   1    86   1     0     1     1  0.287      0.287      0.003333  
   1    87   1     0     1     1  0.290      0.290      0.003333  
   1    88   1     0     1     1  0.293      0.293      0.003333  
   1    89   1     0     1     1  0.297      0.297      0.003333  
   1    90   1     0     2     2  0.300      0.300      0.003333  
   1    91   1     0     1     1  0.303      0.303      0.003333  
   1    92   1     0     1     1  0.307      0.307      0.003333  
   1    93   1     0     1     1  0.310      0.310      0.003333  
   1    94   1     0     1     1  0.313      0.313      0.003333  
   1    95   1     0     2     2  0.317      0.317      0.003333  
   1    96   1     0     2     2  0.320      0.320      0.003333  
   1    97   1     0     1     1  0.323      0.323      0.003333  
   1    98   1     0     1     1  0.327      0.327      0.003333  
   1    99   1     0     1     1  0.330      0.330      0.003333  
   1   100   1     0     1     1  0.333      0.333      0.003333  
   1   101   1     0     1     1  0.337      0.337      0.003333  
   1   102   1     0     1     1  0.340      0.340      0.003333  
   1   103   1     0     1     1  0.343      0.343      0.003333  
   1   104   1     0     1     1  0.347      0.347      0.003333  
   1   105   1     0     1     1  0.350      0.350      0.003333  
   1   106   1     0     1     1  0.353      0.353      0.003333  
   1   107   1     0     1     1  0.357      0.357      0.003333  
   1   108   1     0     1     1  0.360      0.360      0.003333  
   1   109   1     0     1     1  0.363      0.363      0.003333  
   1   110   1     0     1     1  0.367      0.367      0.003333  
   1   111   1     0     1     1  0.370      0.370      0.003333  
   1   112   1     0     1     1  0.373      0.373      0.003333  
   1   113   1     0     1     1  0.377      0.377      0.003333  
   1   114   1     0     1     1  0.380      0.380      0.003333  
   1   115   1     0     1     1  0.383      0.383      0.003333  
   1   116   1     0     1     1  0.387      0.387      0.003333  
   1   117   1     0     1     1  0.390      0.390      0.003333  
   1   118   1     0     2     2  0.393      0.393      0.003333  
   1   119   1     0     2     2  0.397      0.397      0.003333  
   1   120   1     0     1     1  0.400      0.400      0.003333  
   1   121   1     0     1     1  0.403      0.403      0.003333  
   1   122   1     0     1     1  0.407      0.407      0.003333  
   1   123   1     0     1     1  0.410      0.410      0.003333  
   1   124   1     0     1     1  0.413      0.413      0.003333  
   1   125   1     0     1     1  0.417      0.417      0.003333  
   1   126   1     0     1     1  0.420      0.420      0.003333  
   1   127   1     0     1     1  0.423      0.423      0.003333  
   1   128   1     0     1     1  0.427      0.427      0.003333  
   1   129   1     0     1     1  0.430      0.430      0.003333  
   1   130   1     0     1     1  0.433      0.433      0.003333  
   1   131   1     0     1     1  0.437      0.437      0.003333  
   1   132   1     0     1     1  0.440      0.440      0.003333  
   1   133   1     0     1     1  0.443      0.443      0.003333  
   1   134   1     0     1     1  0.447      0.447      0.003333  
   1   135   1     0     1     1  0.450      0.450      0.003333  
   1   136   1     0     1     1  0.453      0.453      0.003333  
   1   137   1     0     1     1  0.457      0.457      0.003333  
   1   138   1     0     1     1  0.460      0.460      0.003333  
   1   139   1     0     1     1  0.463      0.463      0.003333  
   1   140   1     0     1     1  0.467      0.467      0.003333  
   1   141   1     0     1     1  0.470      0.470      0.003333  
   1   142   1     0     1     1  0.473      0.473      0.003333  
   1   143   1     0     1     1  0.477      0.477      0.003333  
   1   144   1     0     1     1  0.480      0.480      0.003333  
   1   145   1     0     1     1  0.483      0.483      0.003333  
   1   146   1     0     1     1  0.487      0.487      0.003333  
   1   147   1     0     1     1  0.490      0.490      0.003333  
   1   148   1     0     1     1  0.493      0.493      0.003333  
   1   149   1     0     1     1  0.497      0.497      0.003333  
   1   150   1     0     1     1  0.500      0.500      0.003333  
   1   151   1     0     1     1  0.503      0.503      0.003333  
   1   152   1     0     1     1  0.507      0.507      0.003333  
   1   153   1     0     1     1  0.510      0.510      0.003333  
   1   154   1     0     1     1  0.513      0.513      0.003333  
   1   155   1     0     1     1  0.517      0.517      0.003333  
   1   156   1     0     1     1  0.520      0.520      0.003333  
   1   157   1     0     1     1  0.523      0.523      0.003333  
   1   158   1     0     1     1  0.527      0.527      0.003333  
   1   159   1     0     1     1  0.530      0.530      0.003333  
   1   160   1     0     1     1  0.533      0.533      0.003333  
   1   161   1     0     1     1  0.537      0.537      0.003333  
   1   162   1     0     1     1  0.540      0.540      0.003333  
   1   163   1     0     1     1  0.543      0.543      0.003333  
   1   164   1     0     1     1  0.547      0.547      0.003333  
   1   165   1     0     1     1  0.550      0.550      0.003333  
   1   166   1     0     1     1  0.553      0.553      0.003333  
   1   167   1     0     1     1  0.557      0.557      0.003333  
   1   168   1     0     1     1  0.560      0.560      0.003333  
   1   169   1     0     1     1  0.563      0.563      0.003333  
   1   170   1     0     1     1  0.567      0.567      0.003333  
   1   171   1     0     1     1  0.570      0.570      0.003333  
   1   172   1     0     1     1  0.573      0.573      0.003333  
   1   173   1     0     1     1  0.577      0.577      0.003333  
   1   174   1     0     1     1  0.580      0.580      0.003333  
   1   175   1     0     1     1  0.583      0.583      0.003333  
   1   176   1     0     1     1  0.587      0.587      0.003333  
   1   177   1     0     1     1  0.590      0.590      0.003333  
   1   178   1     0     1     1  0.593      0.593      0.003333  
   1   179   1     0     1     1  0.597      0.597      0.003333  
   1   180   1     0     1     1  0.600      0.600      0.003333  
   1   181   1     0     1     1  0.603      0.603      0.003333  
   1   182   1     0     1     1  0.607      0.607      0.003333  
   1   183   1     0     1     1  0.610      0.610      0.003333  
   1   184   1     0     1     1  0.613      0.613      0.003333  
   1   185   1     0     1     1  0.617      0.617      0.003333  
   1   186   1     0     1     1  0.620      0.620      0.003333  
   1   187   1     0     1     1  0.623      0.623      0.003333  
   1   188   1     0     1     1  0.627      0.627      0.003333  
   1   189   1     0     1     1  0.630      0.630      0.003333  
   1   190   1     0     1     1  0.633      0.633      0.003333  
   1   191   1     0     1     1  0.637      0.637      0.003333  
   1   192   1     0     1     1  0.640      0.640      0.003333  
   1   193   1     0     1     1  0.643      0.643      0.003333  
   1   194   1     0     1     1  0.647      0.647      0.003333  
   1   195   1     0     1     1  0.650      0.650      0.003333  
   1   196   1     0     1     1  0.653      0.653      0.003333  
   1   197   1     0     1     1  0.657      0.657      0.003333  
   1   198   1     0     1     1  0.660      0.660      0.003333  
   1   199   1     0     1     1  0.663      0.663      0.003333  
   1   200   1     0     1     1  0.667      0.667      0.003333  
   1   201   1     0     1     1  0.670      0.670      0.003333  
   1   202   1     0     1     1  0.673      0.673      0.003333  
   1   203   1     0     1     1  0.677      0.677      0.003333  
   1   204   1     0     1     1  0.680      0.680      0.003333  
   1   205   1     0     1     1  0.683      0.683      0.003333  
   1   206   1     0     1     1  0.687      0.687      0.003333  
   1   207   1     0     1     1  0.690      0.690      0.003333  
   1   208   1     0     1     1  0.693      0.693      0.003333  
   1   209   1     0     1     1  0.697      0.697      0.003333  
   1   210   1     0     1     1  0.700      0.700      0.003333  
   1   211   1     0     1     1  0.703      0.703      0.003333  
   1   212   1     0     1     1  0.707      0.707      0.003333  
   1   213   1     0     1     1  0.710      0.710      0.003333  
   1   214   1     0     1     1  0.713      0.713      0.003333  
   1   215   1     0     1     1  0.717      0.717      0.003333  
   1   216   1     0     1     1  0.720      0.720      0.003333  
   1   217   1     0     1     1  0.723      0.723      0.003333  
   1   218   1     0     1     1  0.727      0.727      0.003333  
   1   219   1     0     1     1  0.730      0.730      0.003333  
   1   220   1     0     1     1  0.733      0.733      0.003333  
   1   221   1     0     1     1  0.737      0.737      0.003333  
   1   222   1     0     1     1  0.740      0.740      0.003333  
   1   223   1     0     1     1  0.743      0.743      0.003333  
   1   224   1     0     1     1  0.747      0.747      0.003333  
   1   225   1     0     1     1  0.750      0.750      0.003333  
   1   226   1     0     1     1  0.753      0.753      0.003333  
   1   227   1     0     1     1  0.757      0.757      0.003333  
   1   228   1     0     1     1  0.760      0.760      0.003333  
   1   229   1     0     1     1  0.763      0.763      0.003333  
   1   230   1     0     1     1  0.767      0.767      0.003333  
   1   231   1     0     1     1  0.770      0.770      0.003333  
   1   232   1     0     1     1  0.773      0.773      0.003333  
   1   233   1     0     1     1  0.777      0.777      0.003333  
   1   234   1     0     1     1  0.780      0.780      0.003333  
   1   235   1     0     1     1  0.783      0.783      0.003333  
   1   236   1     0     1     1  0.787      0.787      0.003333  
   1   237   1     0     1     1  0.790      0.790      0.003333  
   1   238   1     0     1     1  0.793      0.793      0.003333  
   1   239   1     0     1     1  0.797      0.797      0.003333  
   1   240   1     0     1     1  0.800      0.800      0.003333  
   1   241   1     0     1     1  0.803      0.803      0.003333  
   1   242   1     0     1     1  0.807      0.807      0.003333  
   1   243   1     0     1     1  0.810      0.810      0.003333  
   1   244   1     0     1     1  0.813      0.813      0.003333  
   1   245   1     0     1     1  0.817      0.817      0.003333  
   1   246   1     0     1     1  0.820      0.820      0.003333  
   1   247   1     0     1     1  0.823      0.823      0.003333  
   1   248   1     0     1     1  0.827      0.827      0.003333  
   1   249   1     0     1     1  0.830      0.830      0.003333  
   1   250   1     0     1     1  0.833      0.833      0.003333  
   1   251   1     0     1     1  0.837      0.837      0.003333  
   1   252   1     0     1     1  0.840      0.840      0.003333  
   1   253   1     0     1     1  0.843      0.843      0.003333  
   1   254   1     0     1     1  0.847      0.847      0.003333  
   1   255   1     0     1     1  0.850      0.850      0.003333  
   1   256   1     0     1     1  0.853      0.853      0.003333  
   1   257   1     0     1     1  0.857      0.857      0.003333  
   1   258   1     0     1     1  0.860      0.860      0.003333  
   1   259   1     0     1     1  0.863      0.863      0.003333  
   1   260   1     0     1     1  0.867      0.867      0.003333  
   1   261   1     0     1     1  0.870      0.870      0.003333  
   1   262   1     0     1     1  0.873      0.873      0.003333  
   1   263   1     0     1     1  0.877      0.877      0.003333  
   1   264   1     0     1     1  0.880      0.880      0.003333  
   1   265   1     0     1     1  0.883      0.883      0.003333  
   1   266   1     0     1     1  0.887      0.887      0.003333  
   1   267   1     0     1     1  0.890      0.890      0.003333  
   1   268   1     0     1     1  0.893      0.893      0.003333  
   1   269   1     0     1     1  0.897      0.897      0.003333  
   1   270   1     0     1     1  0.900      0.900      0.003333  
   1   271   1     0     1     1  0.903      0.903      0.003333  
   1   272   1     0     1     1  0.907      0.907      0.003333  
   1   273   1     0     1     1  0.910      0.910      0.003333  
   1   274   1     0     1     1  0.913      0.913      0.003333  
   1   275   1     0     1     1  0.917      0.917      0.003333  
   1   276   1     0     1     1  0.920      0.920      0.003333  
   1   277   1     0     1     1  0.923      0.923      0.003333  
   1   278   1     0     1     1  0.927      0.927      0.003333  
   1   279   1     0     1     1  0.930      0.930      0.003333  
   1   280   1     0     1     1  0.933      0.933      0.003333  
   1   281   1     0     1     1  0.937      0.937      0.003333  
   1   282   1     0     1     1  0.940      0.940      0.003333  
   1   283   1     0     1     1  0.943      0.943      0.003333  
   1   284   1     0     1     1  0.947      0.947      0.003333  
   1   285   1     0     1     1  0.950      0.950      0.003333  
   1   286   1     0     1     1  0.953      0.953      0.003333  
   1   287   1     0     1     1  0.957      0.957      0.003333  
   1   288   1     0     1     1  0.960      0.960      0.003333  
   1   289   1     0     1     1  0.963      0.963      0.003333  
   1   290   1     0     1     1  0.967      0.967      0.003333  
   1   291   1     0     1     1  0.970      0.970      0.003333  
   1   292   1     0     1     1  0.973      0.973      0.003333  
   1   293   1     0     1     1  0.977      0.977      0.003333  
   1   294   1     0     1     1  0.980      0.980      0.003333  
   1   295   1     0     1     1  0.983      0.983      0.003333  
